ipss.plugin.test/testData/psse/v30/EQ0907_output_by_GUI_PSSE.TXT

 
--------------------------------------------------------------------------------

                                      PTI INTERACTIVE POWER SYSTEM SIMULATOR--PSS/E      THU, NOV 05 2009   8:59
                                             PSS/E LOADFLOW RAW FILE
                                             CONVERTED FROM BPA FORMAT
 
  X------- FROM BUS ------X AREA  VOLT            GEN    LOAD    SHUNT  X---------- TO BUS ----------X                        TRANSFORMER    RATING A
    BUS# X-- NAME --X BASKV ZONE  PU/KV  ANGLE  MW/MVAR MW/MVAR MW/MVAR   BUS# X-- NAME --X BASKV AREA CKT    MW     MVAR    RATIO   ANGLE   %I   MVA
 
   10002 GZ-HLZ      220.00    1 1.0445  -47.3     0.0  -1656.4     0.0 -----------------------------------------------------------------------------
                               2 229.79            0.0   -114.9     0.0  10234 BEIJIAO     220.00    1  1   1656.4   114.9  1.000LK
 
   10004 ZQ-HLZ      525.00    1 1.0113  -40.9     0.0  -2820.0     0.0 -----------------------------------------------------------------------------
                               4 530.92            0.0   -429.6     0.0  10005 DCZQ=       500.00    1  1   2820.0   429.6  0.952UN
 
   10005 DCZQ=       500.00    1 1.0611  -41.2     0.0      0.0     0.0 -----------------------------------------------------------------------------
                               4 530.53            0.0      0.0     0.0  10004 ZQ-HLZ      525.00    1  1  -2820.0  -415.2  1.000LK
                                                                         10216 YANDU=      500.00    1  1   1410.0   207.6                   27  5000
                                                                         10216 YANDU=      500.00    1  2   1410.0   207.6                   27  5000
   10007 BA-HLZ      525.00    1 1.0059  -47.9     0.0  -2781.3     0.0 -----------------------------------------------------------------------------
                               4 528.12            0.0   -408.8     0.0  10560 BAOAN=      500.00    1  1   2781.3   408.8  0.952LK
 
   10011 DCHZ=       500.00    1 1.0673  -44.4     0.0      0.0     0.0 -----------------------------------------------------------------------------
                               4 533.67            0.0      0.0     0.0  10222 BOLUO=      500.00    1  1   1589.5    81.9                   30  5000
                                                                         10222 BOLUO=      500.00    1  2   1210.5   155.7                   23  5000
                                                                         80010 HUIZ-HLZ    525.00    1  1  -2800.0  -237.6  1.000UN
   10013 GD01-HLZ    525.00    1 1.0029  -47.0     0.0      0.0     0.0 -----------------------------------------------------------------------------
                               4 526.52            0.0      0.0     0.0  10211 DCSUID=     500.00    1  1      0.0     0.0  0.952UN
                                                                         10211 DCSUID=     500.00    1  2      0.0     0.0  0.952UN
                                                                         10211 DCSUID=     500.00    1  3      0.0     0.0  0.952UN
   10014 LUODON50    525.00    1 0.9922  -42.9     0.0      0.0     0.0 -----------------------------------------------------------------------------
                               4 520.90            0.0      0.0   484.3  10213 LUODONG=    500.00    1  1   3438.4  -717.2  0.952LK
                                                                         30072 WUZHO50     525.00    3  1   -910.8    86.9                   40  2300
                                                                         30072 WUZHO50     525.00    3  2   -910.8    77.9                   40  2300
                                                                         30089 HEZHOU50    525.00    3  1   -808.4    34.0                   30  2730
                                                                         30089 HEZHOU50    525.00    3  2   -808.4    34.0                   30  2730
   10015 MAOMIN50    525.00    1 0.9937  -31.5     0.0      0.0     0.0 -----------------------------------------------------------------------------
                               4 521.69            0.0      0.0     0.0  10230 MAOMING=    500.00    1  1   2148.6  -333.6  0.952LK
                                                                         30082 YULIN50     525.00    3  1  -1074.3   166.8                   40  2730
                                                                         30082 YULIN50     525.00    3  2  -1074.3   166.8                   40  2730
   10016 XIANLS50    525.00    1 0.9936  -35.3     0.0      0.0     0.0 -----------------------------------------------------------------------------
                               4 521.65            0.0      0.0   377.1  10212 XIANLS=     500.00    1  1   2217.1  -279.0  0.952LK
                                                                         30097 GUILIN52    525.00    3  1  -1108.6   -49.1                   32  3450
                                                                         30097 GUILIN52    525.00    3  2  -1108.6   -49.1                   32  3450
   10022 GANGCH50    525.00    1 1.0028  -32.0     0.0      0.0     0.0 -----------------------------------------------------------------------------
                               2 526.50            0.0   -104.0     0.0  10231 GANGCHE=    500.00    1  1      0.0   104.0  0.952LK
 
   10159 NPS3        26.000    1 1.0150  -39.5   980.0     35.0     0.0 -----------------------------------------------------------------------------
                              19 26.390          104.6R    20.0     0.0  10192 LINGAO=     500.00    1  1    945.0    84.6  1.000LK          82  1134
 
   10160 NPS4        26.000    1 1.0150  -39.5   980.0     35.0     0.0 -----------------------------------------------------------------------------
                              19 26.390          104.6R    20.0     0.0  10192 LINGAO=     500.00    1  1    945.0    84.6  1.000LK          82  1134
 
   10161 SJA4        20.000    1 1.0150  -40.1   300.0     15.0     0.0 -----------------------------------------------------------------------------
                              19 20.300           44.5R     8.0     0.0  10193 SHAJIAC=    500.00    1  1    285.0    36.5  1.000LK          79   360
 
   10162 SJA5        20.000    1 1.0150  -40.1   300.0     15.0     0.0 -----------------------------------------------------------------------------
                              19 20.300           44.5R     8.0     0.0  10193 SHAJIAC=    500.00    1  1    285.0    36.5  1.000LK          79   360
 
   10163 SJB1        19.000    1 1.0150  -44.0   125.2     15.0     0.0 -----------------------------------------------------------------------------
                              19 19.285           66.3R     7.0     0.0  10194 SHAJIAB=    500.00    1  1    110.2    59.3  1.000LK          30   412
 
   10164 SJB2        19.000    1 1.0150  -40.4   300.0     15.0     0.0 -----------------------------------------------------------------------------
                              19 19.285           75.9R     7.0     0.0  10194 SHAJIAB=    500.00    1  1    285.0    68.9  1.000LK          70   412
 
   10165 SJC1        19.000    1 1.0050  -39.0   600.0     28.0     0.0 -----------------------------------------------------------------------------
                              19 19.095           34.4R    15.0     0.0  10193 SHAJIAC=    500.00    1  1    572.0    19.4  1.000LK          80   716
 
   10166 SJC2        19.000    1 1.0050  -39.1   600.0     28.0     0.0 -----------------------------------------------------------------------------
                              19 19.095           16.8R    15.0     0.0  10193 SHAJIAC=    500.00    1  1    572.0     1.8  1.000LK          79   716
 
   10167 SJC3        19.000    1 1.0050  -39.0   600.0     28.0     0.0 -----------------------------------------------------------------------------
                              19 19.095           34.4R    15.0     0.0  10193 SHAJIAC=    500.00    1  1    572.0    19.4  1.000LK          80   716
 
   10168 PSS1        18.000    1 1.0250  -35.8   300.0     12.0     0.0 -----------------------------------------------------------------------------
                              19 18.450           49.2R     8.0     0.0  10195 XUNENG1=    500.00    1  1    288.0    41.2  1.000LK          83   340
 
   10169 PSS2        18.000    1 1.0250  -35.8   300.0     12.0     0.0 -----------------------------------------------------------------------------
                              19 18.450           49.2R     8.0     0.0  10195 XUNENG1=    500.00    1  1    288.0    41.2  1.000LK          83   340
 
   10170 PSS3        18.000    1 1.0250  -35.8   300.0     12.0     0.0 -----------------------------------------------------------------------------
                              19 18.450           49.2R     8.0     0.0  10195 XUNENG1=    500.00    1  1    288.0    41.2  1.000LK          83   340
 
   10171 PSS4        18.000    1 1.0380  -35.9   300.0     12.0     0.0 -----------------------------------------------------------------------------
                              19 18.684           81.4R     8.0     0.0  10195 XUNENG1=    500.00    1  1    288.0    73.4  1.000LK          84   340
 
   10172 PSS6        18.000    1 1.0250  -35.9   300.0     12.0     0.0 -----------------------------------------------------------------------------
                              19 18.450           49.3R     8.0     0.0  10196 XUNENG2=    500.00    1  1    288.0    41.3  1.000LK          83   340
 
   10173 PSS7        18.000    1 1.0250  -35.9   300.0     12.0     0.0 -----------------------------------------------------------------------------
                              19 18.450           49.3R     8.0     0.0  10196 XUNENG2=    500.00    1  1    288.0    41.3  1.000LK          83   340
 
   10174 PSS8        18.000    1 1.0250  -35.9   300.0     12.0     0.0 -----------------------------------------------------------------------------
                              19 18.450           49.3R     8.0     0.0  10196 XUNENG2=    500.00    1  1    288.0    41.3  1.000LK          83   340
 
   10175 HZX2        18.000    1 1.0350  -41.0   200.0     12.0     0.0 -----------------------------------------------------------------------------
                              19 18.630           49.4R     8.0     0.0  10197 HZXUNEN=    500.00    1  1    188.0    41.4  1.000LK          55   340
 
   10176 ZUH3        20.000    1 1.0013  -37.3   550.0     30.0     0.0 -----------------------------------------------------------------------------
                              19 20.025           60.0L    18.0     0.0  10198 ZHUHAIB=    500.00    1  1    520.0    42.0  1.000LK          72   720
 
   10177 ZUH4        20.000    1 1.0013  -37.3   550.0     30.0     0.0 -----------------------------------------------------------------------------
                              19 20.025           60.0L    18.0     0.0  10198 ZHUHAIB=    500.00    1  1    520.0    42.0  1.000LK          72   720
 
   10178 TOG3        20.000    1 1.0000  -35.1   555.0     30.0     0.0 -----------------------------------------------------------------------------
                              19 20.000           53.2R    18.0     0.0  10199 TONGGU=     500.00    1  1    525.0    35.2  1.000LK          73   720
 
   10179 TOG4        20.000    1 1.0000  -35.1   555.0     30.0     0.0 -----------------------------------------------------------------------------
                              19 20.000           53.2R    18.0     0.0  10199 TONGGU=     500.00    1  1    525.0    35.2  1.000LK          73   720
 
   10180 TOG5        20.000    1 1.0000  -35.1   555.0     30.0     0.0 -----------------------------------------------------------------------------
                              19 20.000           53.2R    18.0     0.0  10199 TONGGU=     500.00    1  1    525.0    35.2  1.000LK          73   720
 
   10181 LYJ1        20.000    1 1.0060  -24.2   250.0     15.0     0.0 -----------------------------------------------------------------------------
                              19 20.120          100.0H     8.0     0.0  10200 LIYUJIA=    500.00    1  1    235.0    92.0  1.000LK          68   370
 
   10182 LYJ2        20.000    1 1.0060  -24.2   250.0     15.0     0.0 -----------------------------------------------------------------------------
                              19 20.120          100.0H     8.0     0.0  10200 LIYUJIA=    500.00    1  1    235.0    92.0  1.000LK          68   370
 
   10183 QIAOK1      22.000    1 1.0200  -23.2   600.0     30.0     0.0 -----------------------------------------------------------------------------
                              19 22.440           57.4R    18.0     0.0  10201 QIAOKOU=    500.00    1  1    570.0    39.4  1.000LK          78   720
 
   10184 QIAOK2      22.000    1 1.0205  -23.2   600.0     30.0     0.0 -----------------------------------------------------------------------------
                              19 22.452           60.0L    18.0     0.0  10201 QIAOKOU=    500.00    1  1    570.0    42.0  1.000LK          78   720
 
   10185 YAX1        20.000    1 1.0080  -32.9   500.0     36.0     0.0 -----------------------------------------------------------------------------
                               2 20.160           32.3R    10.8     0.0  10203 YANGXI=     500.00    1  1    464.0    21.5  1.000LK          64   720
 
   10186 HOHW1       22.000    1 1.0052  -32.8   520.0     30.0     0.0 -----------------------------------------------------------------------------
                              19 22.114            0.0L    18.0     0.0  10204 HONGHAW=    500.00    1  1    490.0   -18.0  1.000LK          68   720
 
   10187 HOHW2       22.000    1 1.0052  -32.8   520.0     30.0     0.0 -----------------------------------------------------------------------------
                              19 22.114            0.0L    18.0     0.0  10204 HONGHAW=    500.00    1  1    490.0   -18.0  1.000LK          68   720
 
   10188 HAIM1       27.000    1 1.0200  -27.9   850.0     60.0     0.0 -----------------------------------------------------------------------------
                               2 27.540           86.6R    30.0     0.0  10205 HAIMEN=     500.00    1  1    790.0    56.6  1.000LK          66  1170
 
   10189 HSYB1       20.000    1 1.0046  -26.9   280.0     15.0     0.0 -----------------------------------------------------------------------------
                              19 20.093            0.0L     8.0     0.0  10206 HESHUYB=    500.00    1  1    265.0    -8.0  1.000LK          71   370
 
   10190 HSYB2       20.000    1 1.0046  -26.9   280.0     15.0     0.0 -----------------------------------------------------------------------------
                              19 20.093            0.0L     8.0     0.0  10206 HESHUYB=    500.00    1  1    265.0    -8.0  1.000LK          71   370
 
   10192 LINGAO=     500.00    1 1.0608  -46.4     0.0      0.0     0.0 -----------------------------------------------------------------------------
                               2 530.42            0.0      0.0     0.0  10159 NPS3        26.000    1  1   -944.0    29.5  1.050UN          79  1134
                                                                         10160 NPS4        26.000    1  1   -944.0    29.5  1.050UN          79  1134
                                                                         10535 SHENZHE=    500.00    1  1    624.4    62.2                   24  2500
                                                                         10535 SHENZHE=    500.00    1  2    651.8    34.9                   25  2500
                                                                         10554 KUNPENG=    500.00    1  1    302.3   -77.0                   12  2500
                                                                         10554 KUNPENG=    500.00    1  2    309.5   -79.1                   12  2500
   10193 SHAJIAC=    500.00    1 1.0573  -46.2     0.0      0.0     0.0 -----------------------------------------------------------------------------
                               2 528.66            0.0      0.0     0.0  10161 SJA4        20.000    1  1   -285.0    -5.8  1.050UN          75   360
                                                                         10162 SJA5        20.000    1  1   -285.0    -5.8  1.050UN          75   360
                                                                         10165 SJC1        19.000    1  1   -571.0    52.7  1.050UN          76   716
                                                                         10166 SJC2        19.000    1  1   -571.0    70.1  1.046UN          76   716
                                                                         10167 SJC3        19.000    1  1   -571.0    52.7  1.050UN          76   716
                                                                         10194 SHAJIAB=    500.00    1  1    320.5   -68.6                   15  2000
                                                                         10209 GUANGNA=    500.00    1  1    451.3     9.1                   17  2500
                                                                         10543 PENGCHE=    500.00    1  1    931.8   -26.4                   35  2500
                                                                         10543 PENGCHE=    500.00    1  2    579.5   -77.9                   22  2500
   10194 SHAJIAB=    500.00    1 1.0575  -46.3     0.0    281.7     0.0 -----------------------------------------------------------------------------
                               2 528.73            0.0     42.2     0.0  10163 SJB1        19.000    1  1   -110.1   -53.8  1.064UN          28   412
                                                                         10164 SJB2        19.000    1  1   -284.5   -38.5  1.064UN          66   412
                                                                         10193 SHAJIAC=    500.00    1  1   -320.5    67.6                   15  2000
                                                                         10209 GUANGNA=    500.00    1  1    433.4   -17.5                   16  2530
   10195 XUNENG1=    500.00    1 1.0636  -42.5     0.0      0.0     0.0 -----------------------------------------------------------------------------
                               2 531.80            0.0      0.0     0.0  10168 PSS1        18.000    1  1   -287.4    -7.4  1.050UN          80   340
                                                                         10169 PSS2        18.000    1  1   -287.4    -7.4  1.050UN          80   340
                                                                         10170 PSS3        18.000    1  1   -287.4    -7.4  1.050UN          80   340
                                                                         10171 PSS4        18.000    1  1   -287.4   -39.1  1.050UN          80   340
                                                                         10196 XUNENG2=    500.00    1  1    852.8    20.0                   56  1420
                                                                         10233 BEIJIAO=    500.00    1  1    296.8    41.3                   20  1420
   10196 XUNENG2=    500.00    1 1.0636  -42.6     0.0      0.0     0.0 -----------------------------------------------------------------------------
                               2 531.78            0.0      0.0     0.0  10172 PSS6        18.000    1  1   -287.4    -7.5  1.050UN          80   340
                                                                         10173 PSS7        18.000    1  1   -287.4    -7.5  1.050UN          80   340
                                                                         10174 PSS8        18.000    1  1   -287.4    -7.5  1.050UN          80   340
                                                                         10195 XUNENG1=    500.00    1  1   -852.8   -19.9                   56  1420
                                                                         10208 ZENGCHE=    500.00    1  1    886.1    28.4                   40  2100
                                                                         10208 ZENGCHE=    500.00    1  2    829.0    13.9                   37  2100
   10197 HZXUNEN=    500.00    1 1.0646  -45.3     0.0      0.0     0.0 -----------------------------------------------------------------------------
                               2 532.30            0.0      0.0     0.0  10175 HZX2        18.000    1  1   -187.7   -26.9  1.044UN          52   340
                                                                         10218 DONGGUA=    500.00    1  1    478.7     3.5                   16  2850
                                                                         10218 DONGGUA=    500.00    1  2    478.7     3.5                   16  2850
                                                                         10222 BOLUO=      500.00    1  1   -769.6    19.8                   29  2500
   10198 ZHUHAIB=    500.00    1 1.0473  -43.7     0.0      0.0     0.0 -----------------------------------------------------------------------------
                               2 523.64            0.0      0.0     0.0  10176 ZUH3        20.000    1  1   -519.4    16.2  1.050UN          69   720
                                                                         10177 ZUH4        20.000    1  1   -519.4    16.2  1.050UN          69   720
                                                                         10232 XIANGSH=    500.00    1  1    519.4   -16.2                   15  3340
                                                                         10232 XIANGSH=    500.00    1  2    519.4   -16.2                   15  3340
   10199 TONGGU=     500.00    1 1.0473  -41.6     0.0      0.0     0.0 -----------------------------------------------------------------------------
                               2 523.66            0.0      0.0     0.0  10178 TOG3        20.000    1  1   -524.3    24.2  1.050UN          70   720
                                                                         10179 TOG4        20.000    1  1   -524.3    24.2  1.050UN          70   720
                                                                         10180 TOG5        20.000    1  1   -524.3    24.2  1.050UN          70   720
                                                                         10232 XIANGSH=    500.00    1  1    786.3   -40.0                   24  3140
                                                                         10232 XIANGSH=    500.00    1  2    786.5   -32.6                   24  3140
   10200 LIYUJIA=    500.00    1 1.0702  -29.6     0.0      0.0     0.0 -----------------------------------------------------------------------------
                               2 535.11            0.0      0.0     0.0  10181 LYJ1        20.000    1  1   -234.6   -67.2  1.100UN          62   370
                                                                         10182 LYJ2        20.000    1  1   -234.6   -67.2  1.100UN          62   370
                                                                         10201 QIAOKOU=    500.00    1  1    469.3   134.3                   22  2100
   10201 QIAOKOU=    500.00    1 1.0695  -29.7     0.0      0.0     0.0 -----------------------------------------------------------------------------
                               2 534.76            0.0      0.0   140.7  10183 QIAOK1      22.000    1  1   -570.0    25.6  1.050UN          74   720
                                                                         10184 QIAOK2      22.000    1  1   -570.0    23.0  1.050UN          74   720
                                                                         10200 LIYUJIA=    500.00    1  1   -469.1  -135.9                   22  2100
                                                                         10227 QUJIANG=    500.00    1  1    793.2   -30.5                   35  2100
                                                                         10227 QUJIANG=    500.00    1  2    815.8   -22.8                   36  2100
   10202 AOLIYOU=    500.00    1 1.0533  -32.0     0.0      0.0     0.0 -----------------------------------------------------------------------------
                               2 526.66            0.0      0.0     0.0  10231 GANGCHE=    500.00    1  1      0.0     0.0                    0  3200
                                                                         10231 GANGCHE=    500.00    1  2      0.0     0.0                    0  3200
   10203 YANGXI=     500.00    1 1.0585  -38.3     0.0      0.0     0.0 -----------------------------------------------------------------------------
                               2 529.25            0.0      0.0     0.0  10185 YAX1        20.000    1  1   -464.0    22.5  1.050UN          61   720
                                                                         10229 DIELING=    500.00    1  1    232.0   -11.2                   10  2100
                                                                         10229 DIELING=    500.00    1  2    232.0   -11.2                   10  2100
   10204 HONGHAW=    500.00    1 1.0644  -38.4     0.0      0.0     0.0 -----------------------------------------------------------------------------
                               2 532.20            0.0      0.0     0.0  10186 HOHW1       22.000    1  1   -490.0    66.6  1.050UN          65   720
                                                                         10187 HOHW2       22.000    1  1   -490.0    66.6  1.050UN          65   720
                                                                         10224 MAOHU=      500.00    1  1    482.1   -65.2                   16  2850
                                                                         10224 MAOHU=      500.00    1  2    497.9   -68.0                   17  2850
   10205 HAIMEN=     500.00    1 1.0673  -33.6     0.0      0.0     0.0 -----------------------------------------------------------------------------
                               2 533.67            0.0      0.0     0.0  10188 HAIM1       27.000    1  1   -789.0    23.3  1.050UN          63  1170
                                                                         10223 SHANTOU=    500.00    1  1    394.5   -11.6                   11  3340
                                                                         10223 SHANTOU=    500.00    1  2    394.5   -11.6                   11  3340
   10206 HESHUYB=    500.00    1 1.0615  -32.5     0.0      0.0     0.0 -----------------------------------------------------------------------------
                               2 530.74            0.0      0.0     0.0  10189 HSYB1       20.000    1  1   -264.6    34.4  1.050UN          68   370
                                                                         10190 HSYB2       20.000    1  1   -264.6    34.4  1.050UN          68   370
                                                                         10225 JIAYING=    500.00    1  1    529.1   -68.7                   24  2100
   10207 ZCT=        500.00    1 1.0521  -47.6     0.0      0.0     0.0 -----------------------------------------------------------------------------
                               2 526.06            0.0      0.0     0.0  10211 DCSUID=     500.00    1  2   -791.3   -14.8                   36  2100
                                                                         10220 GUANCHE=    500.00    1  2    791.3    14.8                   24  3150
   10208 ZENGCHE=    500.00    1 1.0506  -46.5     0.0      0.0     0.0 -----------------------------------------------------------------------------
                               2 525.28            0.0      0.0     0.0  10196 XUNENG2=    500.00    1  1   -878.4   -62.0                   40  2100
                                                                         10196 XUNENG2=    500.00    1  2   -821.0   -48.9                   37  2100
                                                                         10211 DCSUID=     500.00    1  1    491.1  -199.6                   24  2100
                                                                         10220 GUANCHE=    500.00    1  1   1191.3   -22.3                   36  3150
                                                                         10233 BEIJIAO=    500.00    1  1   -875.5   109.8                   34  2500
                                                                         10233 BEIJIAO=    500.00    1  2   -880.2    91.9                   34  2500
                                                                         10258 ZC1         220.00    1  1    545.0   -28.0  1.050UN          69   750
                                                                         10259 ZC2         220.00    1  1    613.8    79.6  1.050UN          79   750
                                                                         10260 ZC3         220.00    1  1    613.8    79.6  1.050UN          79   750
   10209 GUANGNA=    500.00    1 1.0528  -47.7     0.0      0.0     0.0 -----------------------------------------------------------------------------
                               2 526.38            0.0      0.0     0.0  10193 SHAJIAC=    500.00    1  1   -450.2   -56.6                   17  2500
                                                                         10194 SHAJIAB=    500.00    1  1   -431.7   -36.4                   16  2530
                                                                         10215 SHUNDE=     500.00    1  1   -372.6    86.4                   15  2500
                                                                         10215 SHUNDE=     500.00    1  2   -367.8    84.0                   14  2500
                                                                         10270 GN1         220.00    1  1    376.3   -22.1  1.050UN          36  1000
                                                                         10273 GN3         220.00    1  1    623.0   -27.6  1.050UN          59  1000
                                                                         10275 GN4         220.00    1  1    623.0   -27.6  1.050UN          59  1000
   10210 HUADU=      500.00    1 1.0542  -42.7     0.0    846.6     0.0 -----------------------------------------------------------------------------
                               2 527.08            0.0      1.2   273.4  10212 XIANLS=     500.00    1  1   -951.2   120.0                   27  3340
                                                                         10212 XIANLS=     500.00    1  2   -946.3   111.7                   27  3340
                                                                         10216 YANDU=      500.00    1  1   -177.9  -114.2                    6  3641
                                                                         10216 YANDU=      500.00    1  2   -179.0  -115.6                    6  3641
                                                                         10222 BOLUO=      500.00    1  1    252.7  -179.1                    8  3641
                                                                         10222 BOLUO=      500.00    1  2    254.4  -179.9                    8  3641
                                                                         10227 QUJIANG=    500.00    1  1   -522.2    -4.4                   20  2500
                                                                         10227 QUJIANG=    500.00    1  2   -521.4    -2.6                   20  2500
                                                                         10233 BEIJIAO=    500.00    1  1    972.2    45.0                   37  2500
                                                                         10233 BEIJIAO=    500.00    1  2    972.2    44.7                   37  2500
   10211 DCSUID=     500.00    1 1.0530  -47.0     0.0      0.0     0.0 -----------------------------------------------------------------------------
                               4 526.52            0.0      0.0     0.0  10013 GD01-HLZ    525.00    1  1      0.0     0.0  1.000LK
                                                                         10013 GD01-HLZ    525.00    1  2      0.0     0.0  1.000LK
                                                                         10013 GD01-HLZ    525.00    1  3      0.0     0.0  1.000LK
                                                                         10207 ZCT=        500.00    1  2    791.8     6.7                   36  2100
                                                                         10208 ZENGCHE=    500.00    1  1   -490.9   186.6                   24  2100
                                                                         10219 HENGLI=     500.00    1  1   -151.0   -95.1                    8  2100
                                                                         10219 HENGLI=     500.00    1  2   -150.0   -98.2                    8  2100
   10212 XIANLS=     500.00    1 1.0439  -35.5     0.0      0.0     0.0 -----------------------------------------------------------------------------
                               2 521.93            0.0      0.0   215.7  10016 XIANLS50    525.00    1  1  -2217.1   288.2  1.000UN
                                                                         10210 HUADU=      500.00    1  1    958.8  -151.8                   28  3340
                                                                         10210 HUADU=      500.00    1  2    953.1  -144.2                   28  3340
                                                                         10334 XLS2        220.00    1  1    305.3  -207.9  1.050UN          47   750
   10213 LUODONG=    500.00    1 1.0432  -43.3     0.0   2511.0     0.0 -----------------------------------------------------------------------------
                               2 521.60            0.0    130.6     0.0  10014 LUODON50    525.00    1  1  -3438.4   739.9  1.000UN
                                                                         10214 XIJIANG=    500.00    1  1    181.3  -372.3                   16  2500
                                                                         10233 BEIJIAO=    500.00    1  1    380.1  -248.3                   17  2500
                                                                         10233 BEIJIAO=    500.00    1  2    366.1  -250.0                   20  2100
   10214 XIJIANG=    500.00    1 1.0504  -43.6     0.0   1050.0     0.0 -----------------------------------------------------------------------------
                               2 525.21            0.0    -19.2     0.0  10213 LUODONG=    500.00    1  1   -180.7   348.2                   15  2500
                                                                         10216 YANDU=      500.00    1  1   -905.4  -154.2                   24  3641
                                                                         10216 YANDU=      500.00    1  2   -904.0  -172.7                   24  3641
                                                                         10228 JIANGME=    500.00    1  1    411.4   -21.9                   16  2500
                                                                         10228 JIANGME=    500.00    1  2    528.7    19.9                   20  2500
   10215 SHUNDE=     500.00    1 1.0464  -46.2     0.0      0.0     0.0 -----------------------------------------------------------------------------
                               2 523.19            0.0      0.0     0.0  10209 GUANGNA=    500.00    1  1    373.4  -151.7                   15  2500
                                                                         10209 GUANGNA=    500.00    1  2    368.6  -150.2                   15  2500
                                                                         10228 JIANGME=    500.00    1  1   -724.2    18.7                   28  2500
                                                                         10228 JIANGME=    500.00    1  2   -724.2    18.2                   28  2500
                                                                         10232 XIANGSH=    500.00    1  1   -126.7   131.6                    7  2500
                                                                         10232 XIANGSH=    500.00    1  2   -126.7   131.6                    7  2500
                                                                         10292 SD2         220.00    1  1    479.5     0.9  1.050UN          46  1000
                                                                         10293 SD3         220.00    1  1    480.3     0.9  1.050UN          46  1000
   10216 YANDU=      500.00    1 1.0607  -41.3     0.0      0.0     0.0 -----------------------------------------------------------------------------
                               2 530.33            0.0      0.0     0.0  10005 DCZQ=       500.00    1  1  -1410.0  -205.2                   27  5000
                                                                         10005 DCZQ=       500.00    1  2  -1410.0  -205.2                   27  5000
                                                                         10210 HUADU=      500.00    1  1    178.2   -45.8                    5  3641
                                                                         10210 HUADU=      500.00    1  2    179.3   -44.4                    5  3641
                                                                         10214 XIJIANG=    500.00    1  1    908.5   138.3                   24  3641
                                                                         10214 XIJIANG=    500.00    1  2    906.2   157.0                   24  3641
                                                                         10229 DIELING=    500.00    1  1   -248.7    21.2                   11  2100
                                                                         10229 DIELING=    500.00    1  2   -248.7    21.2                   11  2100
                                                                         10366 YD2         220.00    1  1    572.6    81.4  1.050UN          73   750
                                                                         10367 YD3         220.00    1  1    572.6    81.4  1.050UN          73   750
   10217 DGT=        500.00    1 1.0590  -45.9     0.0      0.0     0.0 -----------------------------------------------------------------------------
                               2 529.52            0.0      0.0     0.0  10219 HENGLI=     500.00    1  2    621.1    31.5                   19  3150
                                                                         10221 HUIZHOU=    500.00    1  2   -621.1   -31.5                   29  2000
   10218 DONGGUA=    500.00    1 1.0611  -46.9     0.0   1856.0     0.0 -----------------------------------------------------------------------------
                               2 530.57            0.0    -65.7     0.0  10197 HZXUNEN=    500.00    1  1   -478.1   -65.2                   16  2850
                                                                         10197 HZXUNEN=    500.00    1  2   -478.1   -65.2                   16  2850
                                                                         10219 HENGLI=     500.00    1  1   -327.0   228.8                   12  3150
                                                                         10221 HUIZHOU=    500.00    1  1   -808.7    82.3                   38  2000
                                                                         10554 KUNPENG=    500.00    1  1    117.9   -57.5                    5  2500
                                                                         10554 KUNPENG=    500.00    1  2    117.9   -57.5                    5  2500
   10219 HENGLI=     500.00    1 1.0572  -46.5     0.0   1974.0     0.0 -----------------------------------------------------------------------------
                               2 528.60            0.0    523.2     0.0  10211 DCSUID=     500.00    1  1    151.1    39.3                    7  2100
                                                                         10211 DCSUID=     500.00    1  2    150.1    42.0                    7  2100
                                                                         10217 DGT=        500.00    1  2   -620.4   -44.3                   19  3150
                                                                         10218 DONGGUA=    500.00    1  1    327.1  -245.4                   12  3150
                                                                         10222 BOLUO=      500.00    1  1   -991.0  -157.4                   30  3140
                                                                         10222 BOLUO=      500.00    1  2   -991.0  -157.4                   30  3140
   10220 GUANCHE=    500.00    1 1.0484  -49.7     0.0   2699.0     0.0 -----------------------------------------------------------------------------
                               2 524.21            0.0    158.0     0.0  10207 ZCT=        500.00    1  2   -789.6   -44.4                   24  3150
                                                                         10208 ZENGCHE=    500.00    1  1  -1187.4    29.6                   36  3150
                                                                         10560 BAOAN=      500.00    1  1   -722.0  -143.2                   28  2500
   10221 HUIZHOU=    500.00    1 1.0627  -44.4     0.0      0.0     0.0 -----------------------------------------------------------------------------
                               2 531.37            0.0      0.0     0.0  10217 DGT=        500.00    1  2    622.8     1.5                   29  2000
                                                                         10218 DONGGUA=    500.00    1  1    814.1  -107.5                   39  2000
                                                                         10224 MAOHU=      500.00    1  1   -828.1    21.8                   31  2500
                                                                         10224 MAOHU=      500.00    1  2   -834.7    22.8                   31  2500
                                                                         10245 HZ1         220.00    1  1    256.8     1.5  1.050UN          32   750
                                                                         10246 HZ2         220.00    1  1    256.8     1.5  1.050UN          32   750
                                                                         10249 HZ3         220.00    1  1    256.8     1.5  1.050UN          32   750
                                                                         20191 DAYAWAN=    500.00    2  1   -544.4    56.8                   25  2100
   10222 BOLUO=      500.00    1 1.0656  -44.6     0.0      0.0     0.0 -----------------------------------------------------------------------------
                               2 532.81            0.0      0.0     0.0  10011 DCHZ=       500.00    1  1  -1587.2   -78.8                   30  5000
                                                                         10011 DCHZ=       500.00    1  2  -1209.2  -154.1                   23  5000
                                                                         10197 HZXUNEN=    500.00    1  1    770.7   -29.8                   29  2500
                                                                         10210 HUADU=      500.00    1  1   -251.9    27.2                    7  3641
                                                                         10210 HUADU=      500.00    1  2   -253.6    28.1                    7  3641
                                                                         10219 HENGLI=     500.00    1  1    993.7   148.6                   30  3140
                                                                         10219 HENGLI=     500.00    1  2    993.7   148.6                   30  3140
                                                                         10410 BL2         220.00    1  1    272.0   -44.9  1.050UN          34   750
                                                                         10411 BL3         220.00    1  1    272.0   -44.9  1.050UN          34   750
   10223 SHANTOU=    500.00    1 1.0649  -34.9     0.0      0.0     0.0 -----------------------------------------------------------------------------
                               2 532.45            0.0      0.0     0.0  10205 HAIMEN=     500.00    1  1   -394.1   -55.6                   11  3340
...
 
   10238 BJ33        34.500    1 1.0478  -47.5     0.0      0.0     0.0 -----------------------------------------------------------------------------
                               2 36.150            0.0      0.0   -87.8  10236 BJ3         220.00    1  1      0.0    87.8  1.000UN          52   160
 
   10239 ZAY1        20.000    1 1.0100  -41.7   300.0     10.0     0.0 -----------------------------------------------------------------------------
                              20 20.200          152.2R     6.0     0.0  10241 ZHAOYANG    220.00    1  1    290.0   146.2  1.000LK          67   480
 
   10240 ZAY2        20.000    1 1.0100  -41.7   300.0     10.0     0.0 -----------------------------------------------------------------------------
                              20 20.200          152.2R     6.0     0.0  10241 ZHAOYANG    220.00    1  1    290.0   146.2  1.000LK          67   480
 
   10241 ZHAOYANG    220.00    1 1.0677  -46.5     0.0    266.6     0.0 -----------------------------------------------------------------------------
                              21 234.89            0.0    128.2     0.0  10239 ZAY1        20.000    1  1   -289.6  -116.5  1.100UN          61   480
                                                                         10240 ZAY2        20.000    1  1   -289.6  -116.5  1.100UN          61   480
                                                                         10242 QIANFAN     220.00    1  1    156.3    52.4                    9  1650
                                                                         10242 QIANFAN     220.00    1  2    156.3    52.4                    9  1650
   10242 QIANFAN     220.00    1 1.0670  -46.6     0.0    119.7     0.0 -----------------------------------------------------------------------------
                              21 234.73            0.0     30.8     0.0  10241 ZHAOYANG    220.00    1  1   -156.2   -52.5                    9  1650
                                                                         10241 ZHAOYANG    220.00    1  2   -156.2   -52.5                    9  1650
                                                                         10243 QIUCHANG    220.00    1  1     96.4    37.1                    6  1650
                                                                         10243 QIUCHANG    220.00    1  2     96.4    37.1                    6  1650
   10243 QIUCHANG    220.00    1 1.0593  -47.5     0.0    247.9     0.0 -----------------------------------------------------------------------------
                              21 233.04            0.0     47.0     0.0  10242 QIANFAN     220.00    1  1    -96.3   -41.4                    6  1650
                                                                         10242 QIANFAN     220.00    1  2    -96.3   -41.4                    6  1650
                                                                         10244 HUIZHOU     220.00    1  1    -27.6    17.8                    3   900
                                                                         10244 HUIZHOU     220.00    1  2    -27.8    18.0                    3   900
   10244 HUIZHOU     220.00    1 1.0581  -47.3     0.0    714.4     0.0 -----------------------------------------------------------------------------
                               2 232.78            0.0    133.2     0.0  10243 QIUCHANG    220.00    1  1     27.6   -20.8                    4   900
                                                                         10243 QIUCHANG    220.00    1  2     27.8   -21.1                    4   900
                                                                         10245 HZ1         220.00    1  1   -256.6   -30.4  1.045UN          33   750
                                                                         10246 HZ2         220.00    1  1   -256.6   -30.4  1.045UN          33   750
                                                                         10249 HZ3         220.00    1  1   -256.6   -30.4  1.045UN          33   750
   10245 HZ1         220.00    1 1.0128  -47.3     0.0      0.0     0.0 -----------------------------------------------------------------------------
                               2 222.83            0.0      0.0     0.0  10221 HUIZHOU=    500.00    1  1   -256.7    11.4  1.000LK          34   750
                                                                         10244 HUIZHOU     220.00    1  1    256.7    30.6  1.000LK          34   750
                                                                         10247 HZ31        34.500    1  1      0.0   -42.0  1.000LK          26   160
   10246 HZ2         220.00    1 1.0128  -47.3     0.0      0.0     0.0 -----------------------------------------------------------------------------
                               2 222.83            0.0      0.0     0.0  10221 HUIZHOU=    500.00    1  1   -256.7    11.4  1.000LK          34   750
                                                                         10244 HUIZHOU     220.00    1  1    256.7    30.6  1.000LK          34   750
                                                                         10248 HZ32        34.500    1  1      0.0   -42.0  1.000LK          26   160
   10247 HZ31        34.500    1 1.0365  -47.3     0.0      0.0     0.0 -----------------------------------------------------------------------------
                               2 35.759            0.0      0.0   -43.0  10245 HZ1         220.00    1  1      0.0    43.0  1.000UN          26   160
 
   10248 HZ32        34.500    1 1.0365  -47.3     0.0      0.0     0.0 -----------------------------------------------------------------------------
                               2 35.759            0.0      0.0   -43.0  10246 HZ2         220.00    1  1      0.0    43.0  1.000UN          26   160
 
   10249 HZ3         220.00    1 1.0128  -47.3     0.0      0.0     0.0 -----------------------------------------------------------------------------
                               2 222.83            0.0      0.0     0.0  10221 HUIZHOU=    500.00    1  1   -256.7    11.4  1.000LK          34   750
                                                                         10244 HUIZHOU     220.00    1  1    256.7    30.6  1.000LK          34   750
                                                                         10250 HZ33        34.500    1  1      0.0   -42.0  1.000LK          26   160
   10250 HZ33        34.500    1 1.0365  -47.3     0.0      0.0     0.0 -----------------------------------------------------------------------------
                               2 35.759            0.0      0.0   -43.0  10249 HZ3         220.00    1  1      0.0    43.0  1.000UN          26   160
 
   10251 HUP5        18.000    1 1.0150  -48.6   250.0     15.0     0.0 -----------------------------------------------------------------------------
                              20 18.270          169.1R     8.0     0.0  10253 HUANGPUB    220.00    1  1    235.0   161.1  1.000LK          78   360
 
   10252 HUP6        18.000    1 1.0150  -48.6   250.0     15.0     0.0 -----------------------------------------------------------------------------
                              20 18.270          169.1R     8.0     0.0  10253 HUANGPUB    220.00    1  1    235.0   161.1  1.000LK          78   360
 
   10253 HUANGPUB    220.00    1 1.0519  -53.9     0.0    100.6     0.0 -----------------------------------------------------------------------------
                              21 231.42            0.0    124.8     0.0  10251 HUP5        18.000    1  1   -234.4  -130.7  1.100UN          71   360
                                                                         10252 HUP6        18.000    1  1   -234.4  -130.7  1.100UN          71   360
                                                                         10254 BISHAN      220.00    1  1    184.1    68.3                   21   900
                                                                         10254 BISHAN      220.00    1  2    184.1    68.3                   21   900
   10254 BISHAN      220.00    1 1.0394  -55.0     0.0    468.3     0.0 -----------------------------------------------------------------------------
                              21 228.68            0.0    104.6     0.0  10253 HUANGPUB    220.00    1  1   -183.2   -67.5                   21   900
                                                                         10253 HUANGPUB    220.00    1  2   -183.2   -67.5                   21   900
                                                                         10255 TANGXIA     220.00    1  1    -50.9    15.2                    6   900
                                                                         10255 TANGXIA     220.00    1  2    -50.9    15.2                    6   900
   10255 TANGXIA     220.00    1 1.0385  -54.6     0.0    440.7     0.0 -----------------------------------------------------------------------------
                              21 228.48            0.0     28.0     0.0  10254 BISHAN      220.00    1  1     51.0   -18.2                    6   900
                                                                         10254 BISHAN      220.00    1  2     51.0   -18.2                    6   900
                                                                         10256 ZENGCHEA    220.00    1  1   -271.3     4.2                   16  1650
                                                                         10256 ZENGCHEA    220.00    1  2   -271.3     4.2                   16  1650
   10256 ZENGCHEA    220.00    1 1.0417  -52.4     0.0      0.0     0.0 -----------------------------------------------------------------------------
                               2 229.17            0.0      0.0     0.0  10255 TANGXIA     220.00    1  1    272.2     0.6                   16  1650
                                                                         10255 TANGXIA     220.00    1  2    272.2     0.6                   16  1650
                                                                         10258 ZC1         220.00    1  1   -544.4    -1.2  1.031UN          70   750
   10257 ZENGCHEN    220.00    1 1.0221  -53.3     0.0   1138.0     0.0 -----------------------------------------------------------------------------
                               2 224.86            0.0    239.5     0.0  10259 ZC2         220.00    1  1   -613.1   -89.5  1.031UN          81   750
                                                                         10260 ZC3         220.00    1  1   -613.1   -89.5  1.031UN          81   750
                                                                         10286 HUAPU       220.00    1  1     44.0   -30.3                    5  1050
                                                                         10286 HUAPU       220.00    1  2     44.0   -30.3                    5  1050
   10258 ZC1         220.00    1 1.0107  -52.3     0.0      0.0     0.0 -----------------------------------------------------------------------------
                               2 222.35            0.0      0.0     0.0  10208 ZENGCHE=    500.00    1  1   -544.9    83.8  1.000LK          73   750
                                                                         10256 ZENGCHEA    220.00    1  1    544.8     1.8  1.000LK          72   750
                                                                         10261 ZC31        34.500    1  1      0.1   -85.6  1.000LK          53   160
   10259 ZC2         220.00    1 0.9920  -53.2     0.0      0.0     0.0 -----------------------------------------------------------------------------
                               2 218.24            0.0      0.0     0.0  10208 ZENGCHE=    500.00    1  1   -613.6    -7.8  1.000LK          82   750
                                                                         10257 ZENGCHEN    220.00    1  1    613.6    90.3  1.000LK          83   750
                                                                         10262 ZC32        34.500    1  1      0.1   -82.5  1.000LK          52   160
   10260 ZC3         220.00    1 0.9920  -53.2     0.0      0.0     0.0 -----------------------------------------------------------------------------
                               2 218.24            0.0      0.0     0.0  10208 ZENGCHE=    500.00    1  1   -613.6    -7.8  1.000LK          82   750
                                                                         10257 ZENGCHEN    220.00    1  1    613.6    90.3  1.000LK          83   750
                                                                         10263 ZC33        34.500    1  1      0.1   -82.5  1.000LK          52   160
   10261 ZC31        34.500    1 1.0587  -52.4     0.0      0.0     0.0 -----------------------------------------------------------------------------
                               2 36.524            0.0      0.0   -89.7  10258 ZC1         220.00    1  1      0.0    89.7  1.000UN          53   160
 
   10262 ZC32        34.500    1 1.0391  -53.2     0.0      0.0     0.0 -----------------------------------------------------------------------------
                               2 35.849            0.0      0.0   -86.4  10259 ZC2         220.00    1  1      0.0    86.4  1.000UN          52   160
 
   10263 ZC33        34.500    1 1.0391  -53.2     0.0      0.0     0.0 -----------------------------------------------------------------------------
                               2 35.849            0.0      0.0   -86.4  10260 ZC3         220.00    1  1      0.0    86.4  1.000UN          52   160
 
   10264 ZUJ1        20.000    1 1.0100  -42.9   295.0     15.0     0.0 -----------------------------------------------------------------------------
                              20 20.200          129.0R     8.0     0.0  10268 ZHUJIANG    220.00    1  1    280.0   121.0  1.000LK          84   360
 
   10265 ZUJ2        20.000    1 1.0100  -42.9   295.0     15.0     0.0 -----------------------------------------------------------------------------
                              20 20.200          129.0R     8.0     0.0  10268 ZHUJIANG    220.00    1  1    280.0   121.0  1.000LK          84   360
 
   10266 ZUJ3        20.000    1 1.0100  -43.3   295.0     15.0     0.0 -----------------------------------------------------------------------------
                              20 20.200          135.4R     8.0     0.0  10268 ZHUJIANG    220.00    1  1    280.0   127.4  1.000LK          85   360
 
   10267 ZUJ4        20.000    1 1.0100  -43.3   295.0     15.0     0.0 -----------------------------------------------------------------------------
                              20 20.200          135.4R     8.0     0.0  10268 ZHUJIANG    220.00    1  1    280.0   127.4  1.000LK          85   360
 
...